Version 4
SHEET 1 900 680
WIRE 208 176 144 176
WIRE 208 256 208 176
WIRE -160 288 -192 288
WIRE 176 288 144 288
WIRE 240 288 192 288
WIRE 592 288 544 288
WIRE 208 304 208 272
WIRE 208 400 208 320
WIRE 208 400 144 400
BUSTAP -160 288 -144 288
BUSTAP 240 288 256 288
BUSTAP 592 288 608 288
BUSTAP 176 288 192 288
BUSTAP 208 320 208 304
BUSTAP 208 256 208 272
TEXT -336 288 Center 2 ;Sensing System
TEXT 400 288 Center 2 ;Driving System
TEXT 752 288 Center 2 ;Motion System
TEXT 0 288 Center 2 ;Computation System
TEXT -96 176 Left 2 ;Structure System
TEXT -136 400 Left 2 ;Communication System
RECTANGLE Normal 144 432 -144 368
RECTANGLE Normal 144 320 -144 256
RECTANGLE Normal 144 208 -144 144
RECTANGLE Normal 544 320 256 256
RECTANGLE Normal 896 320 608 256
RECTANGLE Normal -192 320 -480 256
CIRCLE Normal 224 304 192 272 2
