Version 4
SHEET 1 880 680
WIRE -80 176 -112 176
WIRE -48 176 -80 176
WIRE 240 176 160 176
WIRE 480 176 448 176
WIRE -80 224 -80 176
WIRE -48 256 -112 256
WIRE 208 256 160 256
WIRE 256 256 224 256
WIRE 480 256 480 176
WIRE 480 256 272 256
WIRE -80 272 -80 240
WIRE 240 288 240 240
WIRE 368 304 352 304
WIRE 592 304 576 304
WIRE -80 336 -80 288
WIRE -80 336 -112 336
WIRE 352 336 352 304
WIRE 352 336 336 336
WIRE 352 368 352 336
WIRE 368 368 352 368
BUSTAP -48 176 -32 176
BUSTAP -48 256 -32 256
BUSTAP 240 176 256 176
BUSTAP 240 288 240 304
BUSTAP 368 368 384 368
BUSTAP 368 304 384 304
BUSTAP 592 304 608 304
BUSTAP -80 288 -80 272
BUSTAP -80 224 -80 240
BUSTAP 208 256 224 256
BUSTAP 272 256 256 256
TEXT -240 176 Left 1 ;Camera
TEXT 64 168 Center 1 ;Lane Detection\nSubsystem
TEXT 344 168 Center 1 ;Data Proccesing\nSubsystem
TEXT -208 248 Center 1 ;Distance Sensor \n(Back)
TEXT -224 328 Center 1 ;Distance Sensor\n(Front)
TEXT 480 296 Center 1 ;(PID) Controller\nSubsystem
TEXT 240 328 Center 1 ;Internal Communication\nSubsystem
TEXT 480 376 Center 1 ;External Communication\nSubsystem
TEXT 64 248 Center 1 ;Vehicle Detection\nSubsystem
TEXT 720 296 Center 1 ;Driving & Speed\nSubsystems
TEXT 536 96 Center 2 ;Structure & Motion System
RECTANGLE Normal 336 360 144 312
RECTANGLE Normal 448 200 256 152
RECTANGLE Normal 576 328 384 280
RECTANGLE Normal 576 408 384 360
RECTANGLE Normal 160 280 -32 232
RECTANGLE Normal -112 280 -304 232
RECTANGLE Normal -112 200 -304 152
RECTANGLE Normal 160 200 -32 152
RECTANGLE Normal -112 360 -304 312
RECTANGLE Normal 808 328 616 280
RECTANGLE Normal -320 432 816 80
CIRCLE Normal -64 272 -96 240 2
CIRCLE Normal 256 272 224 240 2
