Version 4
SHEET 1 880 680
WIRE -80 176 -112 176
WIRE -48 176 -80 176
WIRE 240 176 160 176
WIRE 480 176 448 176
WIRE -80 224 -80 176
WIRE -48 256 -112 256
WIRE 176 256 160 256
WIRE 224 256 192 256
WIRE 256 256 240 256
WIRE 480 256 480 176
WIRE 480 256 464 256
WIRE -80 272 -80 240
WIRE 208 320 208 240
WIRE 240 320 208 320
WIRE 464 320 448 320
WIRE -80 336 -80 288
WIRE -80 336 -112 336
WIRE 208 384 208 320
WIRE 240 384 208 384
BUSTAP -48 176 -32 176
BUSTAP -48 256 -32 256
BUSTAP 240 176 256 176
BUSTAP 464 256 448 256
BUSTAP 240 384 256 384
BUSTAP 240 320 256 320
BUSTAP 464 320 480 320
BUSTAP -80 288 -80 272
BUSTAP -80 224 -80 240
BUSTAP 176 256 192 256
BUSTAP 240 256 224 256
TEXT -240 176 Left 1 ;Camera
TEXT 64 168 Center 1 ;Lane Detection\nSubsystem
TEXT 344 168 Center 1 ;Data Proccesing\nSubsystem
TEXT -208 248 Center 1 ;Distance Sensor \n(Back)
TEXT -224 328 Center 1 ;Distance Sensor\n(Front)
TEXT 352 312 Center 1 ;(PID) Controller\nSubsystem
TEXT 352 248 Center 1 ;Internal Communication\nSubsystem
TEXT 352 376 Center 1 ;External Communication\nSubsystem
TEXT 64 248 Center 1 ;Vehicle Detection\nSubsystem
TEXT 584 312 Center 1 ;Driving & Speed\nSubsystems
TEXT 536 96 Center 2 ;Structure & Motion System
RECTANGLE Normal 448 280 256 232
RECTANGLE Normal 448 200 256 152
RECTANGLE Normal 448 344 256 296
RECTANGLE Normal 448 408 256 360
RECTANGLE Normal 160 280 -32 232
RECTANGLE Normal -112 280 -304 232
RECTANGLE Normal -112 200 -304 152
RECTANGLE Normal 160 200 -32 152
RECTANGLE Normal -112 360 -304 312
RECTANGLE Normal 680 344 488 296
RECTANGLE Normal -336 448 688 80
CIRCLE Normal -64 272 -96 240 2
CIRCLE Normal 224 272 192 240 2
