Version 4
SHEET 1 980 680
WIRE 16 144 -32 144
WIRE 256 144 208 144
WIRE 496 144 448 144
WIRE 736 144 688 144
WIRE 976 144 928 144
WIRE -208 240 -256 240
WIRE 32 240 -16 240
WIRE 272 240 224 240
WIRE 512 240 464 240
WIRE 752 240 704 240
WIRE 976 240 976 144
WIRE 976 240 944 240
WIRE -256 336 -256 240
WIRE -224 336 -256 336
WIRE 496 336 448 336
WIRE 736 336 688 336
WIRE 736 432 688 432
BUSTAP 256 144 272 144
BUSTAP 944 240 928 240
BUSTAP 704 240 688 240
BUSTAP 16 144 32 144
BUSTAP 464 240 448 240
BUSTAP -224 336 -208 336
BUSTAP 496 336 512 336
BUSTAP 496 144 512 144
BUSTAP 736 144 752 144
BUSTAP 224 240 208 240
BUSTAP -16 240 -32 240
BUSTAP 736 336 752 336
BUSTAP 736 432 752 432
BUSTAP 496 432 512 432
BUSTAP 256 336 272 336
TEXT 360 120 Center 2 ;Adaptive\nRegion Of Interest\nMask
TEXT 600 144 Center 2 ;Denoise Image
TEXT 840 136 Center 2 ;HSV\nColor Filter
TEXT 840 232 Center 2 ;Canny Edge\nDetection
TEXT 80 144 Left 2 ;Raw Image
TEXT 592 232 Center 2 ;Hough Lines\nDetection
TEXT 360 216 Center 2 ;Classify\nLeft and Right\nLines
TEXT -120 232 Center 2 ;Fit Best\nLines
TEXT 360 328 Center 2 ;PID Subystem\nSpeed Subsystem
TEXT 120 232 Center 2 ;Eliminate Incorrect\nLines
TEXT -128 320 Center 2 ;Find\ny1 & beta
TEXT 600 328 Center 2 ;Right & Left Motor\nPWM Values
TEXT 832 336 Center 2 ;Movement
TEXT -176 136 Left 2 ;Set Handshake\nConnection
TEXT 56 352 Left 2 ;Front Sensor \nLess Than\n5 cm ?
TEXT 168 456 Left 2 ;Rear Sensor\nLess Than \n5 cm ?
TEXT 832 432 Center 2 ;Stop
TEXT 600 424 Center 2 ;Handshake\nProtocol
RECTANGLE Normal 208 176 32 112
RECTANGLE Normal 448 176 272 112
RECTANGLE Normal 688 176 512 112
RECTANGLE Normal 928 176 752 112
RECTANGLE Normal -32 176 -208 112
RECTANGLE Normal 928 272 752 208
RECTANGLE Normal 512 208 688 272
RECTANGLE Normal 32 208 208 272
RECTANGLE Normal -208 208 -32 272
RECTANGLE Normal 448 368 272 304
RECTANGLE Normal 272 208 448 272
RECTANGLE Normal -32 368 -208 304
RECTANGLE Normal 688 368 512 304
RECTANGLE Normal 928 368 752 304
RECTANGLE Normal 928 464 752 400
RECTANGLE Normal 688 464 512 400
