Version 4
SHEET 1 880 680
WIRE -48 -176 -96 -176
WIRE 192 -176 144 -176
WIRE 432 -176 384 -176
WIRE -32 -64 -80 -64
WIRE 208 -64 160 -64
WIRE 432 -64 432 -176
WIRE 432 -64 400 -64
BUSTAP 400 -64 384 -64
BUSTAP 160 -64 144 -64
BUSTAP -48 -176 -32 -176
BUSTAP 192 -176 208 -176
BUSTAP -80 -64 -96 -64
TEXT 56 -200 Center 2 ;Classify\nLeft and Right\nLines
TEXT 296 -72 Center 2 ;Fit Best\nLines
TEXT 56 -72 Center 2 ;Find\nSteering Angle
TEXT -184 -184 Center 2 ;Detected Lines\nArray
TEXT -184 -64 Center 2 ;Steering Angle
TEXT 296 -184 Center 2 ;Eliminate Incorrect\nLines
RECTANGLE Normal -32 -208 144 -144
RECTANGLE Normal 208 -96 384 -32
RECTANGLE Normal -32 -96 144 -32
RECTANGLE Normal -96 -144 -272 -208
RECTANGLE Normal 208 -208 384 -144
