Version 4
SHEET 1 880 680
WIRE 16 144 -32 144
WIRE 256 144 208 144
WIRE 496 144 448 144
WIRE -208 240 -256 240
WIRE 32 240 -16 240
WIRE 272 240 224 240
WIRE 496 240 496 144
WIRE 496 240 464 240
WIRE -256 336 -256 240
WIRE -224 336 -256 336
BUSTAP 256 144 272 144
BUSTAP 464 240 448 240
BUSTAP 224 240 208 240
BUSTAP 16 144 32 144
BUSTAP -16 240 -32 240
BUSTAP -224 336 -208 336
TEXT 120 136 Center 2 ;Extract\nRegion of Interest
TEXT 360 144 Center 2 ;Denoise Image
TEXT 360 232 Center 2 ;HSV\nColor Filter
TEXT 120 232 Center 2 ;Canny Edge\nDetection
TEXT -168 144 Left 2 ;Raw Image
TEXT -120 232 Center 2 ;Hough Lines\nDetection
TEXT -120 328 Center 2 ;Detected Lines\nin Image
RECTANGLE Normal 208 176 32 112
RECTANGLE Normal 448 176 272 112
RECTANGLE Normal 448 272 272 208
RECTANGLE Normal 208 272 32 208
RECTANGLE Normal -32 176 -208 112
RECTANGLE Normal -32 272 -208 208
