Version 4
SHEET 1 1052 1236
WIRE 144 -32 144 -80
WIRE 144 -32 -320 -32
WIRE 640 -32 144 -32
WIRE -320 0 -320 -32
WIRE 640 0 640 -32
WIRE -320 160 -320 80
WIRE -320 160 -640 160
WIRE -16 160 -320 160
WIRE 288 160 -16 160
WIRE 640 160 640 80
WIRE 944 160 640 160
WIRE -640 208 -640 160
WIRE -320 208 -320 160
WIRE -16 208 -16 160
WIRE 288 208 288 160
WIRE 640 208 640 160
WIRE 944 208 944 160
WIRE -720 256 -784 256
WIRE -416 256 -464 256
WIRE -96 256 -144 256
WIRE 208 256 160 256
WIRE 560 256 512 256
WIRE 864 256 832 256
WIRE 864 272 864 256
WIRE -784 384 -784 256
WIRE -736 384 -784 384
WIRE -464 384 -464 256
WIRE -432 384 -464 384
WIRE -144 384 -144 256
WIRE -112 384 -144 384
WIRE 160 384 160 256
WIRE 192 384 160 384
WIRE 512 384 512 256
WIRE 544 384 512 384
WIRE 832 384 832 256
WIRE 848 384 832 384
WIRE -784 576 -784 384
WIRE -736 576 -784 576
WIRE -464 576 -464 384
WIRE -432 576 -464 576
WIRE -144 576 -144 384
WIRE -112 576 -144 576
WIRE 160 576 160 384
WIRE 192 576 160 576
WIRE 512 576 512 384
WIRE 544 576 512 576
WIRE 832 576 832 384
WIRE 848 576 832 576
BUSTAP -640 208 -640 224
BUSTAP -320 208 -320 224
BUSTAP -16 208 -16 224
BUSTAP 288 208 288 224
BUSTAP 640 208 640 224
BUSTAP 944 208 944 224
BUSTAP 640 0 640 16
BUSTAP -736 384 -720 384
BUSTAP -736 576 -720 576
BUSTAP -432 384 -416 384
BUSTAP -432 576 -416 576
BUSTAP -112 384 -96 384
BUSTAP 192 384 208 384
BUSTAP 192 576 208 576
BUSTAP 544 384 560 384
BUSTAP 544 576 560 576
BUSTAP 848 384 864 384
BUSTAP 848 576 864 576
BUSTAP -320 0 -320 16
BUSTAP -112 576 -96 576
TEXT -416 48 Left 2 ;Electrical System
TEXT -672 256 Left 2 ;Sensing
TEXT -400 256 Left 2 ;Computation
TEXT -88 256 Left 2 ;Communication
TEXT 256 256 Left 2 ;Driving
TEXT 608 256 Left 2 ;Motion
TEXT 896 256 Left 2 ;Structure
TEXT 520 48 Left 2 ;Mechanical System
TEXT 96 -112 Left 2 ;Robot
TEXT -712 368 Left 2 ;Lane Detection\n- Erdem T.\n- Halil T.
TEXT -712 560 Left 2 ;Vehicle Detection\n- Ilker S.\n- Sarper S.
TEXT -408 368 Left 2 ;Data Processing\n- Erdem T.
TEXT -408 560 Left 2 ;PID Controller \n- Halil T.
TEXT -88 368 Left 2 ;Internal Comm.\n- Enes T.\n- Ilker S.\n- Erdem T.
TEXT -88 560 Left 2 ;External Comm\n- Ilker S.
TEXT 216 368 Left 2 ;Speed\n- Enes T.\n- Sarper S.
TEXT 216 560 Left 2 ;Direction\n- Enes T.\n- Halil T.
TEXT 568 368 Left 2 ;Wheels\n- Enes T.\n- Sarper S.
TEXT 568 560 Left 2 ;Motors\n- Enes T.\n- Sarper S.
TEXT 872 368 Left 2 ;Chasis\n- Enes T.
TEXT 872 560 Left 2 ;PCB Design\n- Enes T.
RECTANGLE Normal -208 80 -448 16
RECTANGLE Normal -544 288 -720 224
RECTANGLE Normal -240 288 -416 224
RECTANGLE Normal 96 288 -96 224
RECTANGLE Normal 384 288 208 224
RECTANGLE Normal 736 288 560 224
RECTANGLE Normal 1040 288 864 224
RECTANGLE Normal 752 80 496 16
RECTANGLE Normal 224 -80 48 -144
RECTANGLE Normal -512 480 -720 352
RECTANGLE Normal -512 640 -720 544
RECTANGLE Normal -224 480 -416 352
RECTANGLE Normal -224 640 -416 544
RECTANGLE Normal 96 480 -96 352
RECTANGLE Normal 96 640 -96 544
RECTANGLE Normal 384 480 208 352
RECTANGLE Normal 384 640 208 544
RECTANGLE Normal 736 480 560 352
RECTANGLE Normal 736 640 560 544
RECTANGLE Normal 1040 480 864 352
RECTANGLE Normal 1040 640 864 544
