Version 4
SHEET 1 1064 680
WIRE -320 160 -640 160
WIRE -640 208 -640 160
WIRE -320 208 -320 160
WIRE -720 256 -768 256
WIRE -416 256 -464 256
WIRE -768 384 -768 256
WIRE -736 384 -768 384
WIRE -464 384 -464 256
WIRE -432 384 -464 384
WIRE -768 528 -768 384
WIRE -736 528 -768 528
WIRE -464 528 -464 384
WIRE -432 528 -464 528
BUSTAP -640 208 -640 224
BUSTAP -320 208 -320 224
BUSTAP -736 384 -720 384
BUSTAP -736 528 -720 528
BUSTAP -432 384 -416 384
BUSTAP -432 528 -416 528
TEXT -640 240 Center 2 ;Sensing\nSystem
TEXT -304 240 Center 2 ;Computation\nSystem
TEXT -712 384 Left 2 ;Lane Detection
TEXT -632 520 Center 2 ;Vehicle \nDetection
TEXT -408 384 Left 2 ;Data Processing
TEXT -328 528 Center 2 ;PID Controller
RECTANGLE Normal -528 288 -720 224
RECTANGLE Normal -192 288 -416 224
RECTANGLE Normal -528 416 -720 352
RECTANGLE Normal -528 560 -720 496
RECTANGLE Normal -192 416 -416 352
RECTANGLE Normal -192 560 -416 496
