Version 4
SHEET 1 880 680
BUSTAP 112 128 112 144
BUSTAP 448 128 448 144
BUSTAP 464 128 464 144
BUSTAP 176 240 176 224
TEXT 136 176 Center 2 ;Controller\nState
TEXT 448 176 Center 2 ;Emergency\nState
TEXT 16 64 Left 1 ;error<critical
TEXT 240 80 Left 1 ;error>=critical
TEXT 576 64 Right 1 ;error>=critical
TEXT 272 288 Left 1 ;error<critical
CIRCLE Normal 240 224 32 144
CIRCLE Normal 544 224 336 144
ARC Normal 32 160 112 80 114 129 55 156
ARC Normal 160 96 448 176 402 119 178 154
ARC Normal 544 160 464 80 521 156 462 129
ARC Normal 464 272 176 192 222 249 446 214
