Version 4
SHEET 1 1044 680
WIRE 288 -32 288 -112
WIRE 288 -32 -176 -32
WIRE 784 -32 288 -32
WIRE -176 0 -176 -32
WIRE 784 0 784 -32
WIRE -320 160 -640 160
WIRE -176 160 -176 80
WIRE -176 160 -320 160
WIRE -16 160 -176 160
WIRE 288 160 -16 160
WIRE 784 160 784 80
WIRE 784 160 640 160
WIRE 944 160 784 160
WIRE -640 208 -640 160
WIRE -320 208 -320 160
WIRE -16 208 -16 160
WIRE 288 208 288 160
WIRE 640 208 640 160
WIRE 944 208 944 160
WIRE -720 256 -768 256
WIRE -416 256 -464 256
WIRE -96 256 -144 256
WIRE 208 256 160 256
WIRE 560 256 512 256
WIRE 864 256 816 256
WIRE 864 272 864 256
WIRE -768 384 -768 256
WIRE -736 384 -768 384
WIRE -464 384 -464 256
WIRE -432 384 -464 384
WIRE -144 384 -144 256
WIRE -112 384 -144 384
WIRE 160 384 160 256
WIRE 192 384 160 384
WIRE 512 384 512 256
WIRE 544 384 512 384
WIRE 816 384 816 256
WIRE 848 384 816 384
WIRE -768 528 -768 384
WIRE -736 528 -768 528
WIRE -464 528 -464 384
WIRE -432 528 -464 528
WIRE -144 528 -144 384
WIRE -112 528 -144 528
WIRE 160 528 160 384
WIRE 192 528 160 528
WIRE 512 528 512 384
WIRE 544 528 512 528
WIRE 816 528 816 384
WIRE 848 528 816 528
BUSTAP -640 208 -640 224
BUSTAP -320 208 -320 224
BUSTAP -16 208 -16 224
BUSTAP 288 208 288 224
BUSTAP 640 208 640 224
BUSTAP 944 208 944 224
BUSTAP 784 0 784 16
BUSTAP -736 384 -720 384
BUSTAP -736 528 -720 528
BUSTAP -432 384 -416 384
BUSTAP -432 528 -416 528
BUSTAP -112 384 -96 384
BUSTAP -112 528 -96 528
BUSTAP 192 384 208 384
BUSTAP 192 528 208 528
BUSTAP 544 384 560 384
BUSTAP 544 528 560 528
BUSTAP 848 384 864 384
BUSTAP 848 528 864 528
BUSTAP -176 0 -176 16
TEXT -240 48 Left 2 ;Electrical Part
TEXT -704 256 Left 2 ;Sensing System
TEXT -328 248 Center 2 ;Computation\nSystem
TEXT -8 248 Center 2 ;Communication\nSystem
TEXT 296 248 Center 2 ;Driving\nSystem
TEXT 616 248 Left 2 ;Motion\nSystem
TEXT 920 248 Left 2 ;Structure\nSystem
TEXT 720 48 Left 2 ;Mechanical Part
TEXT 248 -144 Left 2 ;Robot
TEXT -688 384 Left 2 ;Lane Detection
TEXT -632 520 Center 2 ;Vehicle \nDetection
TEXT -40 384 Left 2 ;Internal
TEXT -48 528 Left 2 ;External
TEXT 248 384 Left 2 ;Speed
TEXT 248 528 Left 2 ;Direction
TEXT 600 384 Left 2 ;Wheels
TEXT 600 528 Left 2 ;Motors
TEXT 904 384 Left 2 ;Chasis
TEXT 904 528 Left 2 ;PCB Design
TEXT -384 384 Left 2 ;Data Processing
TEXT -328 528 Center 2 ;PID Controller
RECTANGLE Normal -96 80 -272 16
RECTANGLE Normal -544 288 -720 224
RECTANGLE Normal -240 288 -416 224
RECTANGLE Normal 80 288 -96 224
RECTANGLE Normal 384 288 208 224
RECTANGLE Normal 736 288 560 224
RECTANGLE Normal 1040 288 864 224
RECTANGLE Normal 864 80 688 16
RECTANGLE Normal 368 -112 192 -176
RECTANGLE Normal -544 416 -720 352
RECTANGLE Normal -544 560 -720 496
RECTANGLE Normal 80 416 -96 352
RECTANGLE Normal 80 560 -96 496
RECTANGLE Normal 384 416 208 352
RECTANGLE Normal 384 560 208 496
RECTANGLE Normal 736 416 560 352
RECTANGLE Normal 736 560 560 496
RECTANGLE Normal 1040 416 864 352
RECTANGLE Normal 1040 560 864 496
RECTANGLE Normal -240 416 -416 352
RECTANGLE Normal -240 560 -416 496
