Version 4
SHEET 1 1064 680
WIRE 128 -32 128 -112
WIRE 128 -32 -336 -32
WIRE 624 -32 128 -32
WIRE -336 0 -336 -32
WIRE 624 0 624 -32
WIRE -336 160 -336 80
WIRE -336 160 -640 160
WIRE -320 160 -336 160
WIRE -16 160 -320 160
WIRE 288 160 -16 160
WIRE 624 160 624 80
WIRE 624 160 608 160
WIRE 912 160 624 160
WIRE -640 208 -640 160
WIRE -320 208 -320 160
WIRE -16 208 -16 160
WIRE 288 208 288 160
WIRE 608 208 608 160
WIRE 912 208 912 160
WIRE -720 256 -768 256
WIRE -416 256 -464 256
WIRE -96 256 -144 256
WIRE 208 256 160 256
WIRE 528 256 480 256
WIRE 832 256 784 256
WIRE 832 272 832 256
WIRE -768 384 -768 256
WIRE -736 384 -768 384
WIRE -464 384 -464 256
WIRE -432 384 -464 384
WIRE -144 384 -144 256
WIRE -112 384 -144 384
WIRE 160 384 160 256
WIRE 192 384 160 384
WIRE 480 384 480 256
WIRE 512 384 480 384
WIRE 784 384 784 256
WIRE 816 384 784 384
WIRE -768 528 -768 384
WIRE -736 528 -768 528
WIRE -464 528 -464 384
WIRE -432 528 -464 528
WIRE -144 528 -144 384
WIRE -112 528 -144 528
WIRE 160 528 160 384
WIRE 192 528 160 528
WIRE 480 528 480 384
WIRE 512 528 480 528
WIRE 784 528 784 384
WIRE 816 528 784 528
BUSTAP -640 208 -640 224
BUSTAP -320 208 -320 224
BUSTAP -16 208 -16 224
BUSTAP 288 208 288 224
BUSTAP 608 208 608 224
BUSTAP 912 208 912 224
BUSTAP 624 0 624 16
BUSTAP -736 384 -720 384
BUSTAP -736 528 -720 528
BUSTAP -432 384 -416 384
BUSTAP -432 528 -416 528
BUSTAP -112 384 -96 384
BUSTAP -112 528 -96 528
BUSTAP 192 384 208 384
BUSTAP 192 528 208 528
BUSTAP 512 384 528 384
BUSTAP 512 528 528 528
BUSTAP 816 384 832 384
BUSTAP 816 528 832 528
BUSTAP -336 0 -336 16
TEXT -408 48 Left 2 ;Electrical Part
TEXT -640 240 Center 2 ;Sensing\nSystem
TEXT -304 240 Center 2 ;Computation\nSystem
TEXT 0 240 Center 2 ;Communication\nSystem
TEXT 296 240 Center 2 ;Driving\nSystem
TEXT 608 240 Center 2 ;Motion\nSystem
TEXT 912 240 Center 2 ;Structure\nSystem
TEXT 536 48 Left 2 ;Mechanical Part
TEXT 88 -144 Left 2 ;Robot
TEXT -712 384 Left 2 ;Lane Detection
TEXT -632 520 Center 2 ;Vehicle \nDetection
TEXT -40 384 Left 2 ;Internal
TEXT -48 528 Left 2 ;External
TEXT 256 384 Left 2 ;Speed
TEXT 248 528 Left 2 ;Direction
TEXT 568 384 Left 2 ;Wheels
TEXT 568 528 Left 2 ;Motors
TEXT 880 384 Left 2 ;Chasis
TEXT 856 528 Left 2 ;PCB Design
TEXT -408 384 Left 2 ;Data Processing
TEXT -328 528 Center 2 ;PID Controller
RECTANGLE Normal -224 80 -432 16
RECTANGLE Normal -528 288 -720 224
RECTANGLE Normal -192 288 -416 224
RECTANGLE Normal 96 288 -96 224
RECTANGLE Normal 384 288 208 224
RECTANGLE Normal 704 288 528 224
RECTANGLE Normal 1008 288 832 224
RECTANGLE Normal 736 80 528 16
RECTANGLE Normal 208 -112 32 -176
RECTANGLE Normal -528 416 -720 352
RECTANGLE Normal -528 560 -720 496
RECTANGLE Normal 96 416 -96 352
RECTANGLE Normal 96 560 -96 496
RECTANGLE Normal 384 416 208 352
RECTANGLE Normal 384 560 208 496
RECTANGLE Normal 704 416 528 352
RECTANGLE Normal 704 560 528 496
RECTANGLE Normal 1008 416 832 352
RECTANGLE Normal 1008 560 832 496
RECTANGLE Normal -192 416 -416 352
RECTANGLE Normal -192 560 -416 496
