Version 4
SHEET 1 1064 680
WIRE 288 -32 288 -112
WIRE 288 -32 -32 -32
WIRE 624 -32 288 -32
WIRE -32 0 -32 -32
WIRE 624 0 624 -32
WIRE -32 80 -48 80
WIRE -144 144 -368 144
WIRE -32 144 -32 80
WIRE -32 144 -144 144
WIRE 80 144 -32 144
WIRE 288 144 80 144
WIRE 624 144 624 80
WIRE 624 144 528 144
WIRE 736 144 624 144
WIRE -368 192 -368 144
WIRE -144 192 -144 144
WIRE 80 192 80 144
WIRE 288 192 288 144
WIRE 528 192 528 144
WIRE 736 192 736 144
BUSTAP -368 192 -368 208
BUSTAP -144 192 -144 208
BUSTAP 80 192 80 208
BUSTAP 288 192 288 208
BUSTAP 528 192 528 208
BUSTAP 736 192 736 208
BUSTAP 624 0 624 16
BUSTAP -32 0 -32 16
TEXT -104 48 Left 2 ;Electrical Part
TEXT -360 224 Center 2 ;Sensing\nSystem
TEXT -128 224 Center 2 ;Computation\nSystem
TEXT 96 224 Center 2 ;Communication\nSystem
TEXT 296 224 Center 2 ;Driving\nSystem
TEXT 536 224 Center 2 ;Motion\nSystem
TEXT 736 224 Center 2 ;Structure\nSystem
TEXT 536 48 Left 2 ;Mechanical Part
TEXT 248 -144 Left 2 ;Robot
RECTANGLE Normal 72 80 -136 16
RECTANGLE Normal -256 272 -448 208
RECTANGLE Normal -16 272 -240 208
RECTANGLE Normal 192 272 0 208
RECTANGLE Normal 384 272 208 208
RECTANGLE Normal 624 272 448 208
RECTANGLE Normal 832 272 656 208
RECTANGLE Normal 736 80 528 16
RECTANGLE Normal 368 -112 192 -176
