Version 4
SHEET 1 880 680
WIRE -48 -176 -96 -176
WIRE 192 -176 144 -176
WIRE -272 -64 -320 -64
WIRE -32 -64 -80 -64
WIRE 192 -64 192 -176
WIRE 192 -64 160 -64
WIRE -320 32 -320 -64
WIRE -288 32 -320 32
BUSTAP 160 -64 144 -64
BUSTAP -80 -64 -96 -64
BUSTAP -48 -176 -32 -176
BUSTAP -288 32 -272 32
TEXT 56 -200 Center 2 ;Classify\nLeft and Right\nLines
TEXT 56 -88 Center 2 ;Fit Best Line\nto Detect\nLanes
TEXT -184 -80 Center 2 ;Predict the Turn\nAngle and Direction
TEXT -184 -192 Center 2 ;Detected Lines\nin Image
TEXT -184 16 Center 2 ;Turn Angle\nand Direction
RECTANGLE Normal -32 -208 144 -144
RECTANGLE Normal -32 -96 144 -32
RECTANGLE Normal -272 -96 -96 -32
RECTANGLE Normal -96 -144 -272 -208
