Version 4
SHEET 1 880 680
WIRE -48 48 -96 48
WIRE 192 48 144 48
WIRE 432 48 384 48
WIRE 672 48 624 48
WIRE -32 144 -80 144
WIRE 208 144 160 144
WIRE 448 144 400 144
WIRE 672 144 672 48
WIRE 672 144 640 144
BUSTAP -48 48 -32 48
BUSTAP 192 48 208 48
BUSTAP 432 48 448 48
BUSTAP 400 144 384 144
BUSTAP 640 144 624 144
BUSTAP 160 144 144 144
BUSTAP -80 144 -96 144
TEXT -232 48 Left 2 ;Raw Image
TEXT 56 48 Center 2 ;Denoise Image
TEXT 296 40 Center 2 ;Canny Edge\nDetection
TEXT 536 40 Center 2 ;Hough Lines\nDetection
TEXT 536 120 Center 2 ;Classify\nLeft and Right\nLines
TEXT 296 120 Center 2 ;Fit Best Line\nto Detect\nLanes
TEXT 56 128 Center 2 ;Predict the Turn\nAngle and Direction
TEXT -184 144 Center 2 ;Output
RECTANGLE Normal -96 80 -272 16
RECTANGLE Normal 144 80 -32 16
RECTANGLE Normal 384 80 208 16
RECTANGLE Normal 624 80 448 16
RECTANGLE Normal 448 112 624 176
RECTANGLE Normal 208 112 384 176
RECTANGLE Normal -32 112 144 176
