Version 4
SHEET 1 880 680
WIRE 256 144 208 144
WIRE 496 144 448 144
WIRE 32 240 0 240
WIRE 272 240 224 240
WIRE 496 240 496 144
WIRE 496 240 464 240
WIRE 0 336 0 240
WIRE 16 336 0 336
BUSTAP 256 144 272 144
BUSTAP 464 240 448 240
BUSTAP 224 240 208 240
BUSTAP 16 336 32 336
TEXT 72 144 Left 2 ;Raw Image
TEXT 360 144 Center 2 ;Denoise Image
TEXT 360 232 Center 2 ;Canny Edge\nDetection
TEXT 120 232 Center 2 ;Hough Lines\nDetection
TEXT 120 328 Center 2 ;Detected Lines\nin Image
RECTANGLE Normal 208 176 32 112
RECTANGLE Normal 448 176 272 112
RECTANGLE Normal 448 272 272 208
RECTANGLE Normal 208 272 32 208
