Version 4
SHEET 1 880 680
WIRE 16 64 -256 64
WIRE 800 64 528 64
WIRE 16 96 16 64
WIRE -256 128 -256 64
WIRE 16 128 16 96
WIRE 16 128 -256 128
WIRE 528 128 528 64
WIRE 800 128 800 64
WIRE 800 128 528 128
WIRE 128 144 -64 144
WIRE 624 144 432 144
WIRE -64 176 -64 144
WIRE 128 176 128 144
WIRE 624 176 624 144
WIRE -64 192 -64 176
WIRE 128 192 128 176
WIRE 128 192 -64 192
WIRE 432 192 432 144
WIRE 624 192 624 176
WIRE 624 192 432 192
WIRE 208 208 48 208
WIRE 496 208 336 208
WIRE 48 240 48 208
WIRE 208 240 208 208
WIRE 496 240 496 208
WIRE 48 256 48 240
WIRE 208 256 208 240
WIRE 208 256 48 256
WIRE 336 256 336 208
WIRE 496 256 496 240
WIRE 496 256 336 256
BUSTAP -80 176 -64 176
BUSTAP 144 176 128 176
BUSTAP 32 96 16 96
BUSTAP 224 240 208 240
BUSTAP 32 240 48 240
BUSTAP 640 176 624 176
BUSTAP 512 240 496 240
TEXT -120 80 Center 2 ;System Level\nRequirements
TEXT 32 160 Center 1 ;Subsystem Level\nRequirements
TEXT 528 160 Center 1 ;Subsystem Level\nTests
TEXT 664 80 Center 2 ;System Level\nTests
TEXT 128 224 Center 1 ;Component Level\nRequirements
TEXT 408 224 Center 1 ;Component Level\nTests
LINE Normal -128 128 -128 128 2
LINE Normal -128 128 -128 128 2
LINE Normal 432 176 144 176
LINE Normal 528 96 32 96
LINE Normal 16 240 32 240
LINE Normal 16 192 16 240
LINE Normal 336 240 224 240
LINE Normal 528 240 512 240
LINE Normal 528 192 528 240
LINE Normal 672 176 640 176
LINE Normal 672 128 672 176
LINE Normal -112 176 -80 176
LINE Normal -112 128 -112 176
