Version 4
SHEET 1 880 680
WIRE 224 176 224 96
WIRE 224 176 32 176
WIRE 464 176 224 176
WIRE -32 240 -32 208
WIRE -32 240 -224 240
WIRE 144 240 -32 240
WIRE 528 240 528 208
WIRE 528 240 416 240
WIRE 624 240 528 240
WIRE -224 272 -224 240
WIRE -32 272 -32 240
WIRE 144 272 144 240
WIRE 416 272 416 240
WIRE 624 272 624 240
WIRE -288 304 -320 304
WIRE -96 304 -128 304
WIRE 96 304 64 304
WIRE 352 304 320 304
WIRE 576 304 544 304
WIRE -320 368 -320 304
WIRE -288 368 -320 368
WIRE -128 368 -128 304
WIRE -96 368 -128 368
WIRE 64 368 64 304
WIRE 96 368 64 368
WIRE 320 368 320 304
WIRE 352 368 320 368
WIRE 544 368 544 304
WIRE 576 368 544 368
WIRE -320 464 -320 368
WIRE -288 464 -320 464
WIRE -128 464 -128 368
WIRE -96 464 -128 464
WIRE 64 464 64 368
WIRE 96 464 64 464
WIRE 320 464 320 368
WIRE 352 464 320 464
WIRE 544 464 544 368
WIRE 576 464 544 464
TEXT 224 72 Center 2 ;Robot
TEXT -24 176 Center 2 ;Electrical\nSystem
TEXT 520 176 Center 2 ;Mechanical\nSystem
TEXT -232 296 Center 2 ;Sensing
TEXT 152 296 Center 2 ;Driving
TEXT 408 296 Center 2 ;Motion
TEXT -40 296 Center 2 ;Computation
TEXT -232 368 Center 2 ;Lane \nDetection
TEXT -232 464 Center 2 ;Vehicle\nDetection
TEXT -40 368 Center 2 ;Data \nProcessing
TEXT -40 464 Center 2 ;(PID)\nController
TEXT 152 376 Center 2 ;Speed
TEXT 152 472 Center 2 ;Direction
TEXT 408 376 Center 2 ;Wheels
TEXT 408 472 Center 2 ;Motors
TEXT 632 376 Center 2 ;Chasis
TEXT 632 296 Center 2 ;Structure
TEXT 632 472 Center 2 ;PCB Design
RECTANGLE Normal 16 320 -96 272
RECTANGLE Normal 208 320 96 272
RECTANGLE Normal 464 320 352 272
RECTANGLE Normal 688 320 576 272
RECTANGLE Normal 464 400 352 352
RECTANGLE Normal 464 496 352 448
RECTANGLE Normal 688 496 576 448 2
RECTANGLE Normal 688 400 576 352 2
RECTANGLE Normal 208 400 96 352
RECTANGLE Normal 208 496 96 448
RECTANGLE Normal 16 496 -96 448
RECTANGLE Normal 16 400 -96 352
RECTANGLE Normal -288 320 -176 272
RECTANGLE Normal -288 400 -176 352
RECTANGLE Normal -288 496 -176 448
RECTANGLE Normal -80 208 32 160
RECTANGLE Normal 576 208 464 160
RECTANGLE Normal 272 48 176 96
