Version 4
SHEET 1 880 680
WIRE -112 304 -176 304
WIRE 80 304 16 304
WIRE 272 304 208 304
FLAG -112 304 0
FLAG 80 304 0
FLAG 272 304 0
TEXT -232 296 Center 2 ;Sensing
TEXT 152 296 Center 2 ;Driving
TEXT 344 296 Center 2 ;Motion
TEXT -40 296 Center 2 ;Computation
RECTANGLE Normal 16 320 -96 272
RECTANGLE Normal 208 320 96 272
RECTANGLE Normal 400 320 288 272
RECTANGLE Normal -288 320 -176 272
