Version 4
SHEET 1 880 680
TEXT 296 80 Center 1 ;caster\nball
TEXT 152 248 Left 1 ;wheels
LINE Normal 272 336 80 336
LINE Normal 208 80 272 128
LINE Normal 272 256 272 128
LINE Normal 272 336 272 320
LINE Normal 80 336 80 320
LINE Normal 80 128 80 256
LINE Normal 144 80 80 128
LINE Normal 144 80 208 80
LINE Normal 272 96 192 144
LINE Normal 208 256 240 288
LINE Normal 144 256 112 288
RECTANGLE Normal 256 320 288 256
RECTANGLE Normal 64 320 96 256
CIRCLE Normal 192 176 160 144
